/*--------------------------------*- C++ -*----------------------------------*\
| =========                 |                                                 |
| \\      /  F ield         | OpenFOAM: The Open Source CFD Toolbox           |
|  \\    /   O peration     | Version:  2.1.x                                 |
|   \\  /    A nd           | Web:      www.OpenFOAM.org                      |
|    \\/     M anipulation  |                                                 |
\*---------------------------------------------------------------------------*/
FoamFile
{
    version     2.0;
    format      ascii;
    class       dictionary;
    location    "system";
    object      controlDict;
}
// * * * * * * * * * * * * * * * * * * * * * * * * * * * * * * * * * * * * * //

application     pimpleDyMFoam;

startFrom       latestTime;

startTime       0;

stopAt          endTime;

endTime         300;

deltaT          0.01;

writeControl    timeStep;

writeInterval   20;

purgeWrite      0;

writeFormat     ascii;

writePrecision  6;

writeCompression compressed;

timeFormat      general;

timePrecision   6;

runTimeModifiable true;

//adjustTimeStep    yes;

//maxCo             0.6;

//maxDeltaT         2.0e-1;

libs
(
    "libOpenFOAM.so"
    "libforces.so"
);

functions
{
    forceCoeffs
    {
        type        forceCoeffs;
        functionObjectLibs ( "libforces.so" );
        writeControl timeStep;
        writeInterval 1;
        patches
        (
            cylinder
        );
		directForceDensity no;

        pName       p;
        UName       U;
        rho         rhoInf;
        log         true;
        rhoInf      1;
        CofR        ( 0 0 0 );
        liftDir     ( 0 1 0 );
        dragDir     ( 1 0 0 );
        pitchAxis   ( 0 0 1 );
        magUInf     1;
        lRef        1;
        Aref        0.05;
    }


  vorticity1
     {
        type vorticity;
        libs ("libfieldFunctionObjects.so");
	executeControl	timeStep;
	executeInterval	20;
        writeControl timeStep;
        writeInterval 20;
        U Urel;
	timeStart 200;
	timeEnd   300;
     }  
}
// ************************************************************************* //
